Version 4.1
SHEET 1 1596 1736
WIRE -1184 -16 -1184 -48
WIRE -32 64 -128 64
WIRE 96 64 48 64
WIRE 320 64 96 64
WIRE -1184 96 -1184 64
WIRE 176 160 176 144
WIRE 96 176 96 64
WIRE 144 176 96 176
WIRE 320 192 320 64
WIRE 320 192 208 192
WIRE 400 192 320 192
WIRE 448 192 400 192
WIRE 528 192 448 192
WIRE -512 208 -656 208
WIRE -384 208 -432 208
WIRE -272 208 -320 208
WIRE -224 208 -272 208
WIRE -128 208 -128 64
WIRE -128 208 -160 208
WIRE -96 208 -128 208
WIRE 32 208 -32 208
WIRE 144 208 32 208
WIRE 400 208 400 192
WIRE 528 208 528 192
WIRE -272 224 -272 208
WIRE 32 224 32 208
WIRE -1408 320 -1408 256
WIRE -1360 320 -1408 320
WIRE -1296 320 -1360 320
WIRE -1184 320 -1296 320
WIRE 400 320 400 288
WIRE 528 320 528 272
WIRE 528 320 400 320
WIRE -1360 336 -1360 320
WIRE -1296 336 -1296 320
WIRE 400 336 400 320
WIRE -656 352 -656 288
WIRE -272 352 -272 304
WIRE 32 352 32 304
WIRE 176 352 176 224
WIRE -1360 416 -1360 400
WIRE -1296 416 -1296 400
WIRE -1520 448 -1520 384
WIRE -1184 512 -1184 320
WIRE -1216 528 -1280 528
WIRE -1056 544 -1152 544
WIRE -1024 544 -1056 544
WIRE -912 544 -944 544
WIRE -832 544 -912 544
WIRE -752 544 -832 544
WIRE -1520 560 -1520 528
WIRE -1424 560 -1520 560
WIRE -1216 560 -1424 560
WIRE -1520 576 -1520 560
WIRE -1424 592 -1424 560
WIRE -1184 608 -1184 576
WIRE -832 624 -832 608
WIRE -1520 704 -1520 656
WIRE -1424 704 -1424 656
WIRE -1280 720 -1280 528
WIRE -1200 720 -1280 720
WIRE -1056 720 -1056 544
WIRE -1056 720 -1136 720
WIRE -1280 832 -1280 720
WIRE -1200 832 -1280 832
WIRE -912 832 -912 544
WIRE -912 832 -1120 832
FLAG 176 352 0
FLAG 176 144 +5V
FLAG -1184 -48 +5V
FLAG -1184 96 0
FLAG 32 352 VGND
FLAG -272 352 VGND
FLAG -1184 608 0
FLAG -1408 256 +5V
FLAG -1360 416 0
FLAG -1296 416 0
FLAG -1520 704 0
FLAG -1424 704 0
FLAG -832 624 0
FLAG -752 544 VGND
FLAG -1520 384 +5V
FLAG 400 336 0
FLAG -656 352 0
FLAG 448 192 OUT
SYMBOL OpAmps\\opamp2 176 128 R0
WINDOW 3 22 1 Left 2
SYMATTR InstName U1
SYMATTR Value AD8532_5
SYMBOL voltage -1184 -32 R0
WINDOW 123 0 0 Left 0
WINDOW 39 0 0 Left 0
SYMATTR InstName V1
SYMATTR Value 5
SYMBOL res 16 208 R0
SYMATTR InstName R1
SYMATTR Value 100k
SYMBOL cap -32 192 R90
WINDOW 0 0 32 VBottom 2
WINDOW 3 32 32 VTop 2
SYMATTR InstName C1
SYMATTR Value 68p
SYMBOL res 64 48 R90
WINDOW 0 0 56 VBottom 2
WINDOW 3 32 56 VTop 2
SYMATTR InstName R2
SYMATTR Value 22k
SYMBOL cap -160 192 R90
WINDOW 0 0 32 VBottom 2
WINDOW 3 32 32 VTop 2
SYMATTR InstName C2
SYMATTR Value 68p
SYMBOL res -288 208 R0
SYMATTR InstName R3
SYMATTR Value 4k7
SYMBOL cap -320 192 R90
WINDOW 0 0 32 VBottom 2
WINDOW 3 32 32 VTop 2
SYMATTR InstName C3
SYMATTR Value 820p
SYMBOL OpAmps\\OP113 -1184 480 R0
SYMATTR InstName U2
SYMBOL cap -1376 336 R0
SYMATTR InstName C4
SYMATTR Value 1µ
SYMBOL cap -1312 336 R0
SYMATTR InstName C5
SYMATTR Value 100n
SYMBOL res -1536 432 R0
SYMATTR InstName R4
SYMATTR Value 10k
SYMBOL res -1536 560 R0
SYMATTR InstName R5
SYMATTR Value 10k
SYMBOL cap -1440 592 R0
SYMATTR InstName C6
SYMATTR Value 100n
SYMBOL cap -1136 704 R90
WINDOW 0 0 32 VBottom 2
WINDOW 3 32 32 VTop 2
SYMATTR InstName C7
SYMATTR Value 100n
SYMBOL res -928 528 R90
WINDOW 0 0 56 VBottom 2
WINDOW 3 32 56 VTop 2
SYMATTR InstName R6
SYMATTR Value 100
SYMBOL res -1104 816 R90
WINDOW 0 0 56 VBottom 2
WINDOW 3 32 56 VTop 2
SYMATTR InstName R7
SYMATTR Value 2k7
SYMBOL cap -848 544 R0
SYMATTR InstName C8
SYMATTR Value 1µ
SYMBOL res -416 192 R90
WINDOW 0 0 56 VBottom 2
WINDOW 3 32 56 VTop 2
SYMATTR InstName R8
SYMATTR Value 50
SYMBOL res 384 192 R0
SYMATTR InstName R9
SYMATTR Value 10Meg
SYMBOL cap 512 208 R0
SYMATTR InstName C9
SYMATTR Value 15p
SYMBOL voltage -656 192 R0
WINDOW 123 24 124 Left 2
WINDOW 39 0 0 Left 0
SYMATTR InstName V2
SYMATTR Value SINE(0 1 1)
SYMATTR Value2 AC 1
TEXT 664 64 Left 2 !.SUBCKT AD8532_5 1  2  99 50 40\n*\n* INPUT STAGE\n*\nm1 3 2 6 50 nix l=6u w=25u\nm2 4 7 6 50 nix l=6u w=25u\nm3 8 2 5 5 pix l=6u w=25u\nm4 9 7 5 5 pix l=6u w=25u\neos 7 1 poly(1) 25 98 5e-3 0.451\niin1 1 98 5p\niin2 2 98 5p\nios 2 1 0.5p\ni1 99 5 50u\ni2 6 50 50u\nr1 99 3 4.833k\nr2 99 4 4.833k\nr3 8 50 4.833k\nr4 9 50 4.833k\nd3 5 99 dx\nd4 50 6 dx\n*\n* GAIN STAGE\n*\neref 98 0 poly(2) 99 0 50 0 0 0.5 0.5\ng1 98 21 poly(2) 4 3 9 8 0 145u 145u\nrg 21 98 18.078e6\ncc 21 40 14p\nd1 21 22 dx\nd2 23 21 dx\nv1 99 22 1.37\nv2 23 50 1.37\n*\n* COMMON MODE GAIN STAGE\n*\necm 24 98 poly(2) 1 98 2 98 0 0.5 0.5\nr5 24 25 1e6\nr6 25 98 10k\nc1 24 25 0.75p\n*\n* OUTPUT STAGE\n*\nisy 99 50 450.4u\ngsy 99 50 poly(1) 99 50 -3.334e-4 6.667e-5\nep 99 39 poly(1) 98 21 0.78925 1\nen 38 50 poly(1) 21 98 0.78925 1\nm15 40 39 99 99 pox l=1.5u w=1500u\nm16 40 38 50 50 nox l=1.5u w=1500u\nc15 40 39 50p\nc16 40 38 50p\n.model dx d(rs=1 cjo=0.1p)\n.model nix nmos(vto=0.75 kp=205.5u rd=1 rs=1 rg=1 rb=1 cgso=4e-9\n+cgdo=4e-9 cgbo=16.667e-9 cbs=2.34e-13 cbd=2.34e-13)\n.model nox nmos(vto=0.75 kp=195u rd=.5 rs=.5 rg=1 rb=1 cgso=66.667e-12\n+cgdo=66.667e-12 cgbo=125e-9 cbs=2.34e-13 cbd=2.34e-13)\n.model pix pmos(vto=-0.75 kp=205.5u rd=1 rs=1 rg=1 rb=1 cgso=4e-9\n+cgdo=4e-9 cgbo=16.667e-9 cbs=2.34e-13 cbd=2.34e-13)\n.model pox pmos(vto=-0.75 kp=195u rd=.5 rs=.5 rg=1 rb=1 cgso=66.667e-12\n+cgdo=66.667e-12 cgbo=125e-9 cbs=2.34e-13 cbd=2.34e-13)\n.ends
TEXT -112 1720 Left 2 ;.tran 0 1m 0 100u
TEXT -528 -56 Left 2 !.ac dec 20 1k 20meg
TEXT -944 0 Left 3 !.meas AC f  FIND frequency WHEN mag(V(out))=0.707106781
RECTANGLE Normal 336 400 608 128 2
